      1 'GENROU' 1     6.1500      0.11000      0.30000      0.10000
          3.0000       0.0000       1.1570      0.96800      0.24200
         0.42700      0.20000      0.12000      0.11750      0.42000    /
